Circuit: * C:\users\crossover\Desktop\My Mac Desktop\SCHOOL WORK\Imperial College London\EEE\Year 1\Project\electronicsdesignproject\Draft1.asc

Direct Newton iteration for .op point succeeded.

Date: Thu Jun 03 18:54:29 2021
Total elapsed time: 0.072 seconds.

tnom = 27
temp = 27
method = trap
totiter = 7
traniter = 0
tranpoints = 0
accept = 0
rejected = 0
matrix size = 8
fillins = 0
solver = Normal
Matrix Compiler1:      20 opcodes
Matrix Compiler2: 594 bytes object code size
