Circuit: * C:\users\crossover\Desktop\My Mac Desktop\SCHOOL WORK\Imperial College London\EEE\Year 1\Project\electronicsdesignproject\Draft2.asc

Direct Newton iteration for .op point succeeded.
Semiconductor Device Operating Points:
                        --- Diodes ---
Name:      d1
Model:      d
Id:      4.37e-04
Vd:      6.34e-01
Req:     5.92e+01
CAP:     0.00e+00



Date: Fri Jun 04 11:45:14 2021
Total elapsed time: 0.167 seconds.

tnom = 27
temp = 27
method = trap
totiter = 8
traniter = 0
tranpoints = 0
accept = 0
rejected = 0
matrix size = 6
fillins = 0
solver = Normal
Matrix Compiler1: 146 bytes object code size
Matrix Compiler2: 360 bytes object code size
