Circuit: * C:\users\crossover\Desktop\My Mac Desktop\SCHOOL WORK\Imperial College London\EEE\Year 1\Project\electronicsdesignproject\Draft1.asc


Date: Sun May 23 15:33:18 2021
Total elapsed time: 0.134 seconds.

tnom = 27
temp = 27
method = trap
totiter = 0
traniter = 0
tranpoints = 0
accept = 0
rejected = 0
matrix size = 4
fillins = 0
solver = Normal

