Circuit: * C:\users\crossover\Desktop\My Mac Desktop\SCHOOL WORK\Imperial College London\EEE\Year 1\Project\electronicsdesignproject\Draft2.asc

Direct Newton iteration for .op point succeeded.

Date: Thu Jun 03 17:53:52 2021
Total elapsed time: 0.084 seconds.

tnom = 27
temp = 27
method = trap
totiter = 8
traniter = 0
tranpoints = 0
accept = 0
rejected = 0
matrix size = 6
fillins = 0
solver = Normal
Matrix Compiler1:       9 opcodes
Matrix Compiler2: 360 bytes object code size
