Circuit: * C:\users\crossover\Desktop\My Mac Desktop\SCHOOL WORK\Imperial College London\EEE\Year 1\Project\electronicsdesignproject\Draft3.asc


Date: Sat Jun 05 20:39:30 2021
Total elapsed time: 0.092 seconds.

tnom = 27
temp = 27
method = trap
totiter = 0
traniter = 0
tranpoints = 0
accept = 0
rejected = 0
matrix size = 8
fillins = 2
solver = Normal

